Circuit: * Z:\home\porcaontas\Uni\MEEC\SM1\EMS\Pratica\Individual\Ex1.asc

WARNING: Less than two connections to node N003.  This node is used by V4.
Direct Newton iteration for .op point succeeded.

Date: Sat Nov 02 16:20:29 2024
Total elapsed time: 0.105 seconds.

tnom = 27
temp = 27
method = trap
totiter = 3
traniter = 0
tranpoints = 0
accept = 0
rejected = 0
matrix size = 12
fillins = 3
solver = Normal
Matrix Compiler1:      32 opcodes
Matrix Compiler2: 962 bytes object code size
