Circuit: * Z:\home\porcaontas\Uni\MEEC\SM1\EMS\Pratica\Individual\Ex2.asc

WARNING: Less than two connections to node N006.  This node is used by V4.
Direct Newton iteration for .op point succeeded.

Date: Sat Nov 02 11:29:59 2024
Total elapsed time: 0.145 seconds.

tnom = 27
temp = 27
method = trap
totiter = 3
traniter = 0
tranpoints = 0
accept = 0
rejected = 0
matrix size = 16
fillins = 5
solver = Normal
Matrix Compiler1:      53 opcodes
Matrix Compiler2:     116 opcodes
