Circuit: * Z:\home\porcaontas\Uni\MEEC\SM1\EMS\Pratica\Individual\schematics\Ex5.asc

Direct Newton iteration for .op point succeeded.

Date: Mon Nov 11 13:43:49 2024
Total elapsed time: 0.168 seconds.

tnom = 27
temp = 27
method = modified trap
totiter = 2106
traniter = 2102
tranpoints = 1052
accept = 1052
rejected = 0
matrix size = 9
fillins = 1
solver = Normal
Matrix Compiler1: 296 bytes object code size  1.8/1.8/[1.7]
Matrix Compiler2:      50 opcodes  1.7/[1.7]/1.8

