Circuit: * Z:\home\porcaontas\Uni\MEEC\SM1\EMS\EMSIndividual\schematics\Ex5.asc

Direct Newton iteration for .op point succeeded.

Date: Mon Nov 18 11:26:13 2024
Total elapsed time: 0.107 seconds.

tnom = 27
temp = 27
method = modified trap
totiter = 2792
traniter = 2758
tranpoints = 1233
accept = 1177
rejected = 56
matrix size = 9
fillins = 1
solver = Normal
Matrix Compiler1: 368 bytes object code size  1.9/1.9/[1.9]
Matrix Compiler2: 719 bytes object code size  1.9/2.1/[1.7]

